Circuit: * Z:\home\lowdrant\git\saber\hw\sims\bat-mtr.asc

Direct Newton iteration for .op point succeeded.

Date: Sat Mar 27 11:55:10 2021
Total elapsed time: 0.121 seconds.

tnom = 27
temp = 27
method = modified trap
totiter = 2091
traniter = 2088
tranpoints = 1045
accept = 1045
rejected = 0
matrix size = 4
fillins = 0
solver = Normal
Matrix Compiler1: 100 bytes object code size  2.1/2.1/[2.0]
Matrix Compiler2: 248 bytes object code size  2.1/2.1/[2.1]

