Circuit: * Z:\home\lowdrant\git\saber\hw\sims\fet-selection.asc

Direct Newton iteration for .op point succeeded.

Date: Sat Mar 27 12:54:20 2021
Total elapsed time: 0.250 seconds.

tnom = 27
temp = 27
method = modified trap
totiter = 2128
traniter = 2112
tranpoints = 1049
accept = 1049
rejected = 0
matrix size = 39
fillins = 10
solver = Normal
Matrix Compiler1: 2.48 KB object code size  3.4/2.7/[2.3]
Matrix Compiler2: 3.14 KB object code size  2.5/3.0/[2.6]

