Circuit: * Z:\home\lowdrant\git\saber\hw\sims\hbridge.asc

Direct Newton iteration for .op point succeeded.

Date: Sat Mar 27 12:41:08 2021
Total elapsed time: 0.374 seconds.

tnom = 27
temp = 27
method = modified trap
totiter = 2112
traniter = 2096
tranpoints = 1049
accept = 1049
rejected = 0
matrix size = 62
fillins = 24
solver = Normal
Thread vector: 26.0/16.5[2] 7.2/8.8[1] 3.8/6.1[1] 3.6/6.0[1]  2592/500
Matrix Compiler1: 4.92 KB object code size  5.3/3.9/[2.9]
Matrix Compiler2: off  [3.4]/4.1/3.6

